[TITLE]
prueba

[JUNCTIONS]
;ID              	Elev        	Demand      	Pattern         
 n1              	670.62      	0           	                	;
 56              	613.43      	0.2         	semana          	;
 n3              	640.92      	0           	                	;
 n4              	655.87      	0           	                	;
 n5              	636.64      	0           	                	;
 n6              	629.56      	0           	                	;
 n7              	669.74      	0           	                	;
 54              	673.21      	0.35        	semana          	;
 n9              	667.87      	0           	                	;
 52              	665.22      	0.35        	semana          	;
 n11             	664.66      	0           	                	;
 53              	662.35      	0.35        	semana          	;
 n13             	660.46      	0           	                	;
 n14             	661.77      	0           	                	;
 n15             	655.73      	0           	                	;
 61              	658.49      	0.35        	semana          	;
 n17             	646.8       	0           	                	;
 n18             	643.37      	0           	                	;
 n19             	627.58      	0           	                	;
 n20             	619.09      	0           	                	;
 n21             	631.47      	0           	                	;
 n22             	638.07      	0           	                	;
 n23             	627.15      	0           	                	;
 n24             	602.25      	0           	                	;
 n25             	624.82      	0           	                	;
 n26             	634.01      	0           	                	;
 n27             	603.24      	0           	                	;
 70              	591.25      	0.2         	semana          	;
 58              	601.12      	0.2         	semana          	;
 n30             	597.05      	0           	                	;
 n31             	604.86      	0           	                	;
 59              	578.19      	0.2         	semana          	;
 62              	652.35      	0.35        	semana          	;
 n34             	621.86      	0           	                	;
 60              	628.17      	0.2         	semana          	;
 57              	584.26      	0.2         	semana          	;
 n38             	618.6       	0           	                	;
 67              	603.77      	0.2         	semana          	;
 n40             	635.72      	0           	                	;
 n41             	620.98      	0           	                	;
 n42             	665.89      	0           	                	;
 n43             	666.58      	0           	                	;
 n44             	652.31      	0           	                	;
 n45             	659.23      	0           	                	;
 n46             	670.4       	0           	                	;
 n47             	675.63      	0           	                	;
 n48             	666.61      	0           	                	;
 n49             	670.21      	0           	                	;
 45              	665.92      	0.1         	semana          	;
 n51             	663.91      	0           	                	;
 n52             	639.75      	0           	                	;
 n53             	650.62      	0           	                	;
 n54             	648.61      	0           	                	;
 n55             	651.20      	0           	                	;
 n56             	661.72      	0           	                	;
 n57             	666.65      	0           	                	;
 n58             	647.54      	0           	                	;
 63              	660.52      	0.35        	semana          	;
 n60             	670.45      	0           	                	;
 n61             	621.39      	0           	                	;
 n62             	619.37      	0           	                	;
 n63             	639.9       	0           	                	;
 65              	623.65      	0.35        	semana          	;
 n65             	628.18      	0           	                	;
 23              	629.83      	0.1         	semana          	;
 n67             	636.39      	0           	                	;
 n68             	633.36      	0           	                	;
 n69             	638.75      	0           	                	;
 n70             	636.78      	0           	                	;
 n71             	666.44      	0           	                	;
 n72             	664.11      	0           	                	;
 n73             	666.85      	0           	                	;
 n74             	669.43      	0           	                	;
 n75             	669.94      	0           	                	;
 n76             	659.45      	0           	                	;
 n77             	667.28      	0           	                	;
 n79             	682.62      	0           	                	;
 66              	616.21      	0.2         	semana          	;
 50              	661.63      	0.427       	semana          	;
 n82             	664.15      	0           	                	;
 49              	667.43      	0           	                	;
 n84             	668.84      	0           	                	;
 n85             	653.65      	0           	                	;
 n86             	668.59      	0           	                	;
 n87             	670.89      	0           	                	;
 n88             	674.58      	0           	                	;
 n89             	668.87      	0           	                	;
 51              	665.99      	0.35        	semana          	;
 n91             	654.61      	0           	                	;
 n92             	638.18      	0           	                	;
 n93             	638.19      	0           	                	;
 55              	608.77      	0.2         	semana          	;
 n95             	700         	0           	                	;
 n96             	618.24      	0           	                	;
 10              	615.92      	0.1         	semana          	;
 n98             	620.51      	0           	                	;
 11              	617.78      	0.1         	semana          	;
 n100            	603.75      	0           	                	;
 6               	598.75      	0.178       	semana          	;
 n102            	612.89      	0           	                	;
 9               	610.99      	0.1         	semana          	;
 n104            	626.1       	0           	                	;
 16              	621.29      	0.1         	semana          	;
 7               	608.01      	0.1         	semana          	;
 14              	619.56      	0.1         	semana          	;
 20              	623.97      	0.1         	semana          	;
 n109            	626.57      	0           	                	;
 19              	624.54      	0.1         	semana          	;
 n111            	627         	0           	                	;
 18              	624.86      	0.1         	semana          	;
 68              	607.28      	0.1         	semana          	;
 n114            	606.77      	0           	                	;
 69              	609.27      	0.1         	semana          	;
 n116            	671.55      	0           	                	;
 n117            	666.42      	0           	                	;
 n118            	602.02      	0           	                	;
 5               	597.95      	0.178       	semana          	;
 n120            	610.67      	0           	                	;
 n121            	657.98      	0           	                	;
 n122            	655.31      	0           	                	;
 n123            	660.71      	0           	                	;
 64              	640.19      	0.1         	semana          	;
 n125            	624.73      	0           	                	;
 4               	597.04      	0.178       	semana          	;
 n127            	623.21      	0           	                	;
 13              	616.95      	0.1         	semana          	;
 n129            	621.43      	0           	                	;
 15              	620.14      	0.1         	semana          	;
 n131            	619.78      	0           	                	;
 17              	621.18      	0.1         	semana          	;
 n133            	619.96      	0           	                	;
 12              	618.13      	0.1         	semana          	;
 8               	612.53      	0           	lunes           	;
 n137            	631.34      	0           	                	;
 22              	627.29      	0.1         	semana          	;
 24              	620.88      	0.1         	semana          	;
 n140            	625.52      	0           	                	;
 n142            	659.3       	0           	                	;
 33              	651.3       	0.155       	semana          	;
 42              	660.57      	0.25        	semana          	;
 32              	652.19      	0.25        	semana          	;
 30              	647.41      	0.069       	semana          	;
 n147            	644.81      	0           	                	;
 n148            	632.64      	0           	                	;
 n149            	644.3       	0           	                	;
 29              	632.64      	0.069       	semana          	;
 n151            	644.5       	0           	                	;
 31              	649.54      	0.157       	semana          	;
 35              	644.05      	0.025       	semana          	;
 n154            	644.72      	0           	                	;
 27              	635.06      	0.069       	semana          	;
 n156            	644.36      	0           	                	;
 n157            	637.64      	0           	                	;
 26              	640.37      	0.1         	semana          	;
 21              	622.25      	0.1         	semana          	;
 n160            	630.26      	0           	                	;
 n161            	625.03      	0           	                	;
 25              	624.43      	0.1         	semana          	;
 n163            	629.43      	0           	                	;
 n164            	632.62      	0           	                	;
 n166            	642.47      	0           	                	;
 28              	634.25      	0.069       	semana          	;
 47              	638         	0.178       	semana          	;
 n169            	671.21      	0           	                	;
 44              	663.34      	0.157       	semana          	;
 n171            	670.45      	0           	                	;
 41              	669.05      	0.045       	semana          	;
 n173            	669.28      	0           	                	;
 n174            	660.73      	0           	                	;
 n175            	667.6       	0           	                	;
 40              	666.32      	0.045       	semana          	;
 n177            	665.25      	0           	                	;
 39              	663.47      	0.045       	semana          	;
 n179            	662.61      	0           	                	;
 38              	661.31      	0.045       	semana          	;
 46              	654.69      	0.1         	semana          	;
 n182            	647.42      	0           	                	;
 n183            	671.73      	0           	                	;
 43              	665.55      	0.1         	semana          	;
 n185            	644.58      	0           	                	;
 34              	645.22      	0.025       	semana          	;
 n187            	634.08      	0           	                	;
 48              	637.64      	0.1         	semana          	;
 n195            	670.21      	0           	                	;
 n196            	668.14      	0           	                	;
 n197            	668.78      	0           	                	;
 n198            	669.22      	0           	                	;
 n199            	669.65      	0           	                	;
 n200            	669.65      	0           	                	;
 n201            	670.27      	0           	                	;
 n202            	670.4       	0           	                	;
 n203            	670.64      	0           	                	;
 n204            	671.21      	0           	                	;
 n205            	671.63      	0           	                	;
 n206            	671         	0           	                	;
 n207            	670.84      	0           	                	;
 n208            	670.98      	0           	                	;
 n209            	671.02      	0           	                	;
 n210            	670.27      	0           	                	;
 n211            	669.8       	0           	                	;
 n212            	669.28      	0           	                	;
 n213            	669.35      	0           	                	;
 n214            	669.6       	0           	                	;
 n215            	670.15      	0           	                	;
 n216            	670.59      	0           	                	;
 n217            	670.22      	0           	                	;
 n218            	669.21      	0           	                	;
 n219            	667.22      	0           	                	;
 n220            	665.2       	0           	                	;
 n221            	664.21      	0           	                	;
 n222            	661.3       	0           	                	;
 n223            	652.5       	0           	                	;
 n224            	649.7       	0           	                	;
 36              	643.23      	0.279       	semana          	;Huerto
 37              	668         	0.1         	semana          	;Huerto
 3               	635.72      	0           	                	;
 73              	706         	0           	                	;
 74              	691         	0           	                	;
 71              	667.28      	0           	                	;
 72              	666.42      	0           	                	;
 75              	657.98      	0           	                	;
 76              	651.20      	0           	                	;
 77              	601.61      	0           	                	;
 78              	601.58      	0.178       	semana          	;
 79              	561.29      	0           	                	;
 80              	568.25      	0.25        	semana          	;
 81              	552.88      	0.178       	semana          	;
 82              	608.77      	0           	                	;
 83              	613.43      	0           	                	;
 84              	578.19      	0           	                	;
 85              	584.26      	0           	                	;
 86              	601.12      	0           	                	;
 87              	628.17      	0           	                	;
 88              	591.25      	0           	                	;
 89              	603.77      	0           	                	;
 90              	609.27      	0           	                	;
 91              	607.28      	0           	                	;
 92              	620.88      	0           	                	;
 93              	624.43      	0           	                	;
 94              	627.29      	0           	                	;
 95              	622.25      	0           	                	;
 96              	617.78      	0           	                	;
 97              	615.92      	0           	                	;
 98              	610.99      	0           	                	;
 99              	616.95      	0           	                	;
 100             	621.18      	0           	                	;
 101             	624.86      	0           	                	;
 102             	624.54      	0           	                	;
 103             	623.97      	0           	                	;
 104             	621.29      	0           	                	;
 105             	620.14      	0           	                	;
 106             	619.56      	0           	                	;
 107             	618.13      	0           	                	;
 108             	608.01      	0           	                	;
 109             	598.75      	0           	                	;
 110             	597.95      	0           	                	;
 111             	597.04      	0           	                	;
 112             	601.58      	0           	                	;
 113             	568.25      	0           	                	;
 114             	552.88      	0           	                	;
 115             	623.65      	0           	                	;
 116             	616.21      	0           	                	;

[RESERVOIRS]
;ID              	Head        	Pattern         
 1               	700         	                	;
 2               	691         	                	;

[TANKS]
;ID              	Elevation   	InitLevel   	MinLevel    	MaxLevel    	Diameter    	MinVol      	VolCurve

[PIPES]
;ID              	Node1           	Node2           	Length      	Diameter    	Roughness   	MinorLoss   	Status
 p3              	n5              	n6              	28.43       	80          	135         	0           	Open  	;
 p4              	n7              	54              	37.78       	63          	150         	0           	Open  	;
 p5              	n9              	52              	30.77       	80          	135         	0           	Open  	;
 p6              	n11             	53              	15.75       	80          	135         	0           	Open  	;
 p7              	n13             	n14             	60.38       	80          	135         	0           	Open  	;
 p10             	n19             	n20             	56.05       	80          	135         	0           	Open  	;
 p12             	n23             	n24             	209         	80          	135         	0           	Open  	;
 p13             	n25             	n26             	71.66       	70          	135         	0           	Open  	;
 p14             	n20             	n27             	111.8       	75          	150         	0           	Open  	;
 p16             	86              	n30             	52.65       	70          	135         	0           	Open  	;
 p17             	n31             	84              	116.1       	70          	135         	0           	Open  	;
 p18             	n4              	62              	40.71       	63          	150         	0           	Open  	;
 p23             	n42             	n43             	64.13       	80          	135         	0           	Open  	;
 p25             	n46             	n47             	147.6       	80          	135         	0           	Open  	;
 p26             	n48             	n49             	14.12       	100         	135         	0           	Open  	;
 p28             	n45             	n51             	40.19       	100         	135         	0           	Open  	;
 p29             	n53             	n52             	81.33       	80          	135         	0           	Open  	;
 p30             	n54             	76              	220.1       	80          	135         	0           	Open  	;
 p33             	n55             	n58             	30.59       	100         	135         	0           	Open  	;
 p36             	n63             	115             	69.65       	75          	150         	0           	Open  	;
 p37             	n65             	23              	98.14       	80          	135         	0           	Open  	;
 p38             	n67             	n68             	35.39       	80          	135         	0           	Open  	;
 p39             	n69             	n70             	22.77       	100         	135         	0           	Open  	;
 p40             	n71             	n72             	13.31       	70          	135         	0           	Open  	;
 p41             	n73             	n74             	15.02       	80          	135         	0           	Open  	;
 p42             	n75             	n76             	125.4       	80          	135         	0           	Open  	;
 p45             	n40             	116             	101         	80          	135         	0           	Open  	;
 p48             	n82             	49              	48.86       	80          	135         	0           	Open  	;
 p51             	n86             	n87             	44.05       	70          	135         	0           	Open  	;
 p52             	n88             	n1              	90.86       	80          	135         	0           	Open  	;
 p53             	n89             	51              	31.51       	80          	135         	0           	Open  	;
 p55             	n92             	n93             	96.01       	80          	135         	0           	Open  	;
 p56             	82              	n95             	795         	75          	150         	0           	Open  	;
 p57             	n96             	97              	101.9       	80          	135         	0           	Open  	;
 p58             	n98             	96              	100.5       	80          	135         	0           	Open  	;
 p59             	n100            	109             	165.7       	80          	135         	0           	Open  	;
 p60             	n102            	98              	42.18       	70          	135         	0           	Open  	;
 p64             	n104            	103             	25.79       	80          	135         	0           	Open  	;
 p65             	n109            	102             	23.52       	80          	135         	0           	Open  	;
 p66             	n111            	101             	40.94       	80          	135         	0           	Open  	;
 p68             	n114            	90              	81.17       	80          	135         	0           	Open  	;
 p71             	n1              	n79             	56.17       	80          	135         	0           	Open  	;
 p72             	n118            	110             	180.6       	80          	135         	0           	Open  	;
 p73             	n120            	n27             	278.7       	63          	150         	0           	Open  	;
 p78             	n55             	n122            	32.7        	100         	135         	0           	Open  	;
 p82             	n93             	64              	24.11       	63          	150         	0           	Open  	;
 p85             	n129            	105             	57.26       	80          	135         	0           	Open  	;
 p86             	n131            	100             	37.63       	80          	135         	0           	Open  	;
 p87             	n133            	107             	62.27       	75          	150         	0           	Open  	;
 p89             	n137            	94              	102.4       	50          	150         	0           	Open  	;
 p92             	n142            	33              	37.72       	40          	150         	0           	Open  	;
 p95             	n148            	n149            	51.42       	60          	135         	0           	Open  	;
 p96             	29              	n148            	2.459       	60          	135         	0           	Open  	;
 p97             	n151            	31              	86.68       	40          	150         	0           	Open  	;
 p98             	35              	n154            	116.9       	75          	150         	0           	Open  	;
 p100            	n157            	26              	164.3       	80          	135         	0           	Open  	;
 p102            	n161            	93              	139.9       	80          	135         	0           	Open  	;
 p105            	n166            	28              	131.8       	63          	150         	0           	Open  	;
 p108            	n171            	41              	73.61       	63          	150         	0           	Open  	;
 p110            	n175            	40              	68.11       	63          	150         	0           	Open  	;
 p111            	n177            	39              	67.05       	63          	150         	0           	Open  	;
 p112            	n179            	38              	57.53       	63          	150         	0           	Open  	;
 p113            	46              	n182            	303.5       	63          	150         	0           	Open  	;
 p114            	n183            	43              	56.51       	75          	150         	0           	Open  	;
 p116            	n187            	48              	141.7       	75          	150         	0           	Open  	;
 p120            	n195            	n196            	8.019       	100         	135         	0           	Open  	;
 p121            	n196            	n197            	11.99       	100         	135         	0           	Open  	;
 p122            	n197            	n198            	18.4        	100         	135         	0           	Open  	;
 p123            	n198            	n199            	16.96       	100         	135         	0           	Open  	;
 p124            	n199            	n200            	16.45       	100         	135         	0           	Open  	;
 p125            	n200            	n201            	12.4        	100         	135         	0           	Open  	;
 p126            	n201            	n202            	14.47       	100         	135         	0           	Open  	;
 p127            	n202            	n203            	12.11       	100         	135         	0           	Open  	;
 p128            	n203            	n204            	10.63       	100         	135         	0           	Open  	;
 p129            	n204            	n205            	11.62       	100         	135         	0           	Open  	;
 p130            	n205            	n206            	33.81       	100         	135         	0           	Open  	;
 p131            	n206            	n207            	19.93       	100         	135         	0           	Open  	;
 p132            	n207            	n208            	19.13       	100         	135         	0           	Open  	;
 p133            	n208            	n209            	15.7        	100         	135         	0           	Open  	;
 p134            	n209            	n210            	26.72       	100         	135         	0           	Open  	;
 p135            	n210            	n211            	20.24       	100         	135         	0           	Open  	;
 p136            	n211            	n212            	18.15       	100         	135         	0           	Open  	;
 p137            	n212            	n213            	18.52       	100         	135         	0           	Open  	;
 p138            	n213            	n214            	27.03       	100         	135         	0           	Open  	;
 p139            	n214            	n215            	29.59       	100         	135         	0           	Open  	;
 p140            	n215            	n216            	29.85       	100         	135         	0           	Open  	;
 p141            	n216            	n217            	51.71       	100         	135         	0           	Open  	;
 p142            	n217            	n218            	21.23       	100         	135         	0           	Open  	;
 p143            	n218            	n219            	29.61       	100         	135         	0           	Open  	;
 p144            	n219            	n220            	34.87       	100         	135         	0           	Open  	;
 p145            	n220            	n221            	26.81       	100         	135         	0           	Open  	;
 p146            	n221            	n222            	32.51       	100         	135         	0           	Open  	;
 p147            	n222            	n223            	69.64       	100         	135         	0           	Open  	;
 p148            	n223            	n224            	85.27       	100         	135         	0           	Open  	;
 p149            	n224            	36              	69.36       	100         	135         	0           	Open  	;
 3               	n54             	n63             	85.47       	70          	135         	0           	Open  	;
 4               	n5              	n21             	116.85      	80          	135         	0           	Open  	;
 5               	n21             	n23             	95.04       	80          	135         	0           	Open  	;
 6               	n23             	n6              	132.82      	80          	135         	0           	Open  	;
 7               	n6              	n19             	25.17       	80          	135         	0           	Open  	;
 8               	n19             	n41             	39.26       	80          	135         	0           	Open  	;
 9               	n7              	n1              	5.5         	60          	135         	0           	Open  	;
 10              	83              	n7              	607.4       	60          	135         	0           	Open  	;
 11              	n60             	n89             	4.76        	80          	135         	0           	Open  	;
 12              	n89             	n9              	18.02       	80          	135         	0           	Open  	;
 13              	n9              	n11             	11.65       	80          	135         	0           	Open  	;
 14              	n11             	63              	20.12       	80          	135         	0           	Open  	;
 15              	n11             	n14             	81.81       	80          	135         	0           	Open  	;
 16              	n14             	n91             	44.13       	80          	135         	0           	Open  	;
 17              	n85             	n91             	6.02        	150         	135         	0           	Open  	;
 18              	n91             	n82             	55          	150         	135         	0           	Open  	;